FoamFile { version 2.0; format ascii; class dictionary; object fvSolution; }
solvers
{
    p
    {
        solver  petsc;
        petsc { options {
            ksp_type cg; ksp_atol "1e-8"; ksp_rtol "1e-6"; ksp_max_it "500";
            mat_type aijkokkos;
            pc_type bjacobi;
            sub_pc_type ilu;
            sub_pc_factor_levels "0";
        } }
        tolerance 1e-6; relTol 0.05;
    }
    pFinal { $p; relTol 0; }
    U { solver smoothSolver; smoother symGaussSeidel; tolerance 1e-5; relTol 0; }
}
PISO { nCorrectors 2; nNonOrthogonalCorrectors 0; pRefCell 0; pRefValue 0; }
